Referencia/OpenDSS/Examples/InverterModels/PVSystem2/InvControl2/VV_VW/SnapShot_VVVW_varMax_PMPPPU_pctPmpp60_Power_elem_kVA.txt

CIRCUIT ELEMENT POWER FLOW

(Power Flow into element from indicated Bus)

Power Delivery Elements

  Bus Phase     kW     +j   kvar         kVA         PF

ELEMENT = "Vsource.SOURCE"
A        1       200.0 +j    -84.5      217.1      -0.9211
A        2       200.0 +j    -84.5      217.1      -0.9211
A        3       200.0 +j    -84.5      217.1      -0.9211
   TERMINAL TOTAL   600.0 +j   -253.6      651.4      -0.9211
A        0         0.0 +j      0.0        0.0       1.0000
A        0         0.0 +j      0.0        0.0       1.0000
A        0         0.0 +j      0.0        0.0       1.0000
   TERMINAL TOTAL     0.0 +j      0.0        0.0       1.0000

= = = = = = = = = = = = = = = = = = =  = = = = = = = = = = =  = =

Power Conversion Elements

  Bus Phase     kW   +j  kvar         kVA         PF

ELEMENT = "PVSystem.PV"
A        1    -200.0 +j   84.5      217.1      -0.9211
A        2    -200.0 +j   84.5      217.1      -0.9211
A        3    -200.0 +j   84.5      217.1      -0.9211
A        0       0.0 +j    0.0        0.0       1.0000
  TERMINAL TOTAL   -600.0 +j    253.6      651.4      -0.9211


Total Circuit Losses =    0.0 +j    0.0
